# generated using pymatgen
data_TlInS2
_symmetry_space_group_name_H-M   'P 1'
_cell_length_a   4.13282262
_cell_length_b   5.08966890
_cell_length_c   6.16479378
_cell_angle_alpha   96.19865257
_cell_angle_beta   102.57872603
_cell_angle_gamma   103.46026036
_symmetry_Int_Tables_number   1
_chemical_formula_structural   TlInS2
_chemical_formula_sum   'Tl1 In1 S2'
_cell_volume   121.35373266
_cell_formula_units_Z   1
loop_
 _symmetry_equiv_pos_site_id
 _symmetry_equiv_pos_as_xyz
  1  'x, y, z'
loop_
 _atom_site_type_symbol
 _atom_site_label
 _atom_site_symmetry_multiplicity
 _atom_site_fract_x
 _atom_site_fract_y
 _atom_site_fract_z
 _atom_site_occupancy
  Tl  Tl1  1  0.984809  0.733136  0.797862  1
  In  In2  1  0.765380  0.208141  0.215009  1
  S  S3  1  0.358928  0.229754  0.541327  1
  S  S4  1  0.390883  0.828968  0.445802  1

